Circuit: * H:\Materi Kuliah\Semester 7\Elday\UAS_Elektronika Daya\Task 1\Low-Side Totem-Pole\Totem Pole MOSFET.asc

Direct Newton iteration for .op point succeeded.

Date: Wed Dec 17 17:23:12 2025
Total elapsed time: 0.093 seconds.

tnom = 27
temp = 27
method = modified trap
totiter = 4323
traniter = 4289
tranpoints = 1374
accept = 1259
rejected = 115
matrix size = 18
fillins = 4
solver = Alternate
Matrix Compiler1: 1.61 KB object code size  0.3/0.3/[0.2]
Matrix Compiler2: 1.65 KB object code size  0.2/0.3/[0.2]

