Circuit: * H:\Materi Kuliah\Semester 7\Elday\UAS_Elektronika Daya\Task 1\Low Side\Switching MOSFET.asc

Per .tran options, skipping operating point for transient analysis.

Date: Wed Dec 17 16:11:37 2025
Total elapsed time: 47.146 seconds.

tnom = 27
temp = 27
method = modified trap
totiter = 20018108
traniter = 20018108
tranpoints = 10001615
accept = 10001215
rejected = 400
matrix size = 9
fillins = 0
solver = Alternate
Matrix Compiler1:      18 opcodes  0.1/[0.1]/0.1
Matrix Compiler2: 679 bytes object code size  0.1/0.1/[0.1]

